Mass spectrum: Benzamide; LC-ESI-QTOF; MS2; MERGED; [M+H]+
Name: Benzamide
Formula: C7H7NO
Exact mass: 121.05276
SMILES: NC(=O)c(c1)cccc1
InChI: InChI=1S/C7H7NO/c8-7(9)6-4-2-1-3-5-6/h1-5H,(H2,8,9)
Instrument: Qstar, Applied Biosystems
Instrument type: LC-ESI-QTOF
Ms type: MS2
Ion mode: POSITIVE
Precursor m/z: 122
Precursor type: [M+H]+
m/z	relative intensity
N/A	N/A
