Mass spectrum: 3-bromo-N-methylaniline; ESI-ITFT; MS2; CID; CE: 45%; R=60000; [M+H]+; Direct injection
Name: 3-bromo-N-methylaniline
Formula: C7H8BrN
Exact mass: 184.98401
SMILES: CNC1=CC(Br)=CC=C1
InChI: InChI=1S/C7H8BrN/c1-9-7-4-2-3-6(8)5-7/h2-5,9H,1H3
Instrument: LTQ Orbitrap XL Thermo Scientific
Instrument type: ESI-ITFT
Ms type: MS2
Ionization: ESI
Ion mode: POSITIVE
Fragmentation mode: CID
Collision energy: 45 % (nominal)
Resolution: 60000
Column name: N/A
Retention time: 2.0 min
Base peak: 185.9911
Precursor m/z: 185.9913
Precursor type: [M+H]+
m/z	relative intensity	assigned
82.0164	1	C3H2N2O+
106.0651	2	C7H8N+
107.0728	124	C7H9N+
170.9675	999	C6H6BrN+
